 1000.00     310.00      10.00
   25.00     305.00      10.00       0.00       0.00
  1025       308.0      10.00       0.00       0.00
  2025       311.0      10.00       0.00       0.00
  3025       314.0      10.00       0.00       0.00
  4025       317.0      10.00       0.00       0.00
  5025       320.0      10.00       0.00       0.00
  6025       323.0      10.00       0.00       0.00
  7025       326.0      10.00       0.00       0.00
  8025       329.0      10.00       0.00       0.00
  9025       332.0      10.00       0.00       0.00
 10025       335.0      10.00       0.00       0.00
 11025       338.0      10.00       0.00       0.00
 12025       341.0      10.00       0.00       0.00