 &time_control
 run_days                            = 0,
 run_hours                           = 5,
 run_minutes                         = 30,
 run_seconds                         = 00,
 start_year                          = 2014,
 start_month                         = 03,
 start_day                           = 21,
 start_hour                          = 12,
 start_minute                        = 00,
 start_second                        = 00,
 end_year                            = 2014,
 end_month                           = 03,  03,
 end_day                             = 21,  22,
 end_hour                            = 17,  08,
 end_minute                          = 30,  00,
 end_second                          = 00,  00,
 history_interval_m                  = 5,
 history_interval_s                  = 00,
 frames_per_outfile                  = 1000, 1000, 1000,
 restart                             = .false.,
 restart_interval_m                  = 30,
 io_form_history                     = 2
 io_form_restart                     = 2
 io_form_input                       = 2
 io_form_boundary                    = 2
 debug_level                         = 0
 /

 &domains
 time_step                           = 0,
 time_step_fract_num                 = 1,
 time_step_fract_den                 = 5,
 max_dom                             = 1,
 s_we                                = 1,
 e_we                                = 400,
 s_sn                                = 1,
 e_sn                                = 150,
 s_vert                              = 1,
 e_vert                              = 69,
 eta_levels	                         = 1.          0.99953452  0.9990692   0.99855753  0.99799492,
                                       0.99737631  0.99669617  0.9959484   0.99512634  0.99422264
                                       0.99322927  0.9921374   0.99093736  0.98961855  0.98816934
                                       0.986577    0.9848276   0.98290587  0.98079515  0.97847717
                                       0.97593202  0.97313793  0.97007118  0.96670589  0.96301388
                                       0.95896452  0.95452452  0.94965775  0.94432508  0.93848418
                                       0.93208935  0.92509135  0.91743725  0.90907029  0.89992983
                                       0.88995122  0.87906585  0.86720123  0.85428111  0.84022576
                                       0.82495241  0.80837573  0.79040864  0.77096324  0.74995205
                                       0.72728951  0.7028938   0.67668909  0.64860805  0.61859493
                                       0.58660893  0.55262803  0.51665323  0.47871304  0.43886818
                                       0.39721639  0.35517186  0.3154556   0.27793868  0.24249932
                                       0.20902245  0.17739941  0.14752753  0.11930985  0.09265476
                                       0.06747573  0.04369102  0.02122343  0.,
 dx                                  = 50, 
 dy                                  = 50, 
 ztop                                = 12000.,
 grid_id                             = 1,
 parent_id                           = 0,
 i_parent_start                      = 0,
 j_parent_start                      = 0,
 parent_grid_ratio                   = 1,
 parent_time_step_ratio              = 1,
 feedback                            = 0,
 smooth_option                       = 0
 /

 &physics
 mp_physics                          = 0,     0,     0,
 ra_lw_physics                       = 0,     0,     0,
 ra_sw_physics                       = 0,     0,     0,
 radt                                = 0,     0,     0,
 sf_sfclay_physics                   = 1,     1,     1,
 sf_surface_physics                  = 0,     0,     0,
 bl_pbl_physics                      = 0,     0,     0,
 bldt                                = 0,     0,     0,
 cu_physics                          = 0,     0,     0,
 cudt                                = 0,     0,     0,
 isfflx                              = 2,
 num_soil_layers                     = 5,
 /

 &fdda
 /

 &dynamics
 rk_ord                              = 3,
 diff_opt                            = 2,      2,      2,
 km_opt                              = 2,      2,      2,
 damp_opt                            = 0,
 zdamp                               = 5000.,  5000.,  5000.,
 dampcoef                            = 0.1,    0.2,    0.2
 khdif                               = 1.,      1.,    .05,
 kvdif                               = 1.,      1.,    .05,
 c_s                                 = 0.18
 c_k                                 = 0.10
 mix_isotropic                       = 1
 smdiv                               = 0.1,    0.1,    0.1,
 emdiv                               = 0.01,   0.01,   0.01,
 epssm                               = 0.1,    0.1,    0.1
 tke_heat_flux                       = 0.24,   0.24,   0.24,
 time_step_sound                     = 6,      6,      6,
 h_mom_adv_order                     = 5,      5,      5,
 v_mom_adv_order                     = 3,      3,      3,
 h_sca_adv_order                     = 5,      5,      5,
 v_sca_adv_order                     = 3,      3,      3,
 mix_full_fields                     = .true., .true., .true.,
 non_hydrostatic                     = .true., .true., .true.,
 pert_coriolis                       = .true., .true., .true.,
 use_theta_m                         = 1,
 /

 &bdy_control
 ideal_terrain			             = 4, 
 slope1			            	     = 3,
 fetch1         				     = 3000,
 slope2                              = 5,
 fetch2                              = 1000,
 ideal_soil		            	     = .true.,
 periodic_x                          = .true., .false.,.false.,
 symmetric_xs                        = .false.,.false.,.false.,
 symmetric_xe                        = .false.,.false.,.false.,
 open_xs                             = .false.,.false.,.false.,
 open_xe                             = .false.,.false.,.false.,
 periodic_y                          = .true., .false.,.false.,
 symmetric_ys                        = .false.,.false.,.false.,
 symmetric_ye                        = .false.,.false.,.false.,
 open_ys                             = .false.,.false.,.false.,
 open_ye                             = .false.,.false.,.false.,
 nested                              = .false., .true., .true.,
 /

 &grib2
 /

 &namelist_quilt
 nio_tasks_per_group = 0,
 nio_groups = 1,
 /
